test/data/enwl/networks/network_22/Feeder_5/Lines.txt
New Line.LINE1 Bus1=1 Bus2=2 phases=3 Linecode=4c_.1 Length=0.20695 Units=m
New Line.LINE2 Bus1=2 Bus2=3 phases=3 Linecode=4c_.1 Length=0.077232 Units=m
New Line.LINE3 Bus1=3 Bus2=4 phases=3 Linecode=4c_.1 Length=0.054231 Units=m
New Line.LINE4 Bus1=4 Bus2=5 phases=3 Linecode=4c_.1 Length=0.069642 Units=m
New Line.LINE5 Bus1=5 Bus2=6 phases=3 Linecode=4c_.1 Length=0.055902 Units=m
New Line.LINE6 Bus1=6 Bus2=7 phases=3 Linecode=4c_.1 Length=0.066611 Units=m
New Line.LINE7 Bus1=7 Bus2=8 phases=3 Linecode=4c_.1 Length=0.051624 Units=m
New Line.LINE8 Bus1=8 Bus2=9 phases=3 Linecode=4c_.1 Length=0.059641 Units=m
New Line.LINE9 Bus1=9 Bus2=10 phases=3 Linecode=4c_.1 Length=0.045618 Units=m
New Line.LINE10 Bus1=10 Bus2=11 phases=3 Linecode=4c_.1 Length=0.058822 Units=m
New Line.LINE11 Bus1=11 Bus2=12 phases=3 Linecode=4c_.1 Length=0.15359 Units=m
New Line.LINE12 Bus1=12 Bus2=13 phases=3 Linecode=4c_.1 Length=0.085586 Units=m
New Line.LINE13 Bus1=13 Bus2=14 phases=3 Linecode=4c_.1 Length=0.08315 Units=m
New Line.LINE14 Bus1=14 Bus2=15 phases=3 Linecode=4c_.1 Length=0.074733 Units=m
New Line.LINE15 Bus1=15 Bus2=16 phases=3 Linecode=4c_.1 Length=0.072801 Units=m
New Line.LINE16 Bus1=16 Bus2=17 phases=3 Linecode=4c_.1 Length=0.066921 Units=m
New Line.LINE17 Bus1=17 Bus2=18 phases=3 Linecode=4c_.1 Length=0.079902 Units=m
New Line.LINE18 Bus1=18 Bus2=19 phases=3 Linecode=4c_.1 Length=0.45022 Units=m
New Line.LINE19 Bus1=19 Bus2=20 phases=3 Linecode=4c_.1 Length=3.1967 Units=m
New Line.LINE20 Bus1=20 Bus2=21 phases=3 Linecode=4c_.1 Length=3.1766 Units=m
New Line.LINE21 Bus1=21 Bus2=22 phases=3 Linecode=4c_.1 Length=1.1047 Units=m
New Line.LINE22 Bus1=22 Bus2=23 phases=3 Linecode=4c_.1 Length=0.29101 Units=m
New Line.LINE23 Bus1=23 Bus2=24 phases=3 Linecode=4c_.1 Length=0.14369 Units=m
New Line.LINE24 Bus1=24 Bus2=25 phases=3 Linecode=4c_.1 Length=0.18784 Units=m
New Line.LINE25 Bus1=25 Bus2=26 phases=3 Linecode=4c_.1 Length=0.14587 Units=m
New Line.LINE26 Bus1=26 Bus2=27 phases=3 Linecode=4c_.1 Length=0.11031 Units=m
New Line.LINE27 Bus1=27 Bus2=28 phases=3 Linecode=4c_.1 Length=0.1544 Units=m
New Line.LINE28 Bus1=28 Bus2=29 phases=3 Linecode=4c_.1 Length=0.21508 Units=m
New Line.LINE29 Bus1=29 Bus2=30 phases=3 Linecode=4c_.1 Length=19.2661 Units=m
New Line.LINE30 Bus1=30 Bus2=31 phases=3 Linecode=4c_.1 Length=9.2548 Units=m
New Line.LINE31 Bus1=31 Bus2=32 phases=3 Linecode=4c_.1 Length=0.31728 Units=m
New Line.LINE32 Bus1=32 Bus2=33 phases=3 Linecode=4c_.1 Length=0.22562 Units=m
New Line.LINE33 Bus1=33 Bus2=34 phases=3 Linecode=4c_.1 Length=0.18754 Units=m
New Line.LINE34 Bus1=34 Bus2=35 phases=3 Linecode=4c_.1 Length=0.27045 Units=m
New Line.LINE35 Bus1=35 Bus2=36 phases=3 Linecode=4c_.1 Length=10.185 Units=m
New Line.LINE36 Bus1=36 Bus2=37 phases=3 Linecode=4c_.1 Length=0.77023 Units=m
New Line.LINE37 Bus1=37 Bus2=38 phases=3 Linecode=4c_.1 Length=0.65672 Units=m
New Line.LINE38 Bus1=38 Bus2=39 phases=3 Linecode=4c_.1 Length=1.0902 Units=m
New Line.LINE39 Bus1=39 Bus2=40 phases=3 Linecode=4c_.1 Length=1.6617 Units=m
New Line.LINE40 Bus1=40 Bus2=41 phases=3 Linecode=4c_.1 Length=6.2237 Units=m
New Line.LINE41 Bus1=41 Bus2=42 phases=3 Linecode=4c_.1 Length=1.309 Units=m
New Line.LINE42 Bus1=42 Bus2=43 phases=3 Linecode=4c_.1 Length=0.34695 Units=m
New Line.LINE43 Bus1=43 Bus2=44 phases=3 Linecode=4c_.1 Length=0.35109 Units=m
New Line.LINE44 Bus1=44 Bus2=45 phases=3 Linecode=4c_.1 Length=0.31506 Units=m
New Line.LINE45 Bus1=45 Bus2=46 phases=3 Linecode=4c_.1 Length=0.21219 Units=m
New Line.LINE46 Bus1=46 Bus2=47 phases=3 Linecode=4c_.1 Length=0.27375 Units=m
New Line.LINE47 Bus1=47 Bus2=48 phases=3 Linecode=4c_.1 Length=0.35319 Units=m
New Line.LINE48 Bus1=48 Bus2=49 phases=3 Linecode=4c_.1 Length=1.9407 Units=m
New Line.LINE49 Bus1=49 Bus2=50 phases=3 Linecode=2c_.0225 Length=0.82412 Units=m
New Line.LINE50 Bus1=49 Bus2=51 phases=3 Linecode=4c_.1 Length=9.0454 Units=m
New Line.LINE51 Bus1=50 Bus2=52 phases=3 Linecode=2c_.0225 Length=0.30681 Units=m
New Line.LINE52 Bus1=51 Bus2=53 phases=3 Linecode=2c_.0225 Length=0.44337 Units=m
New Line.LINE53 Bus1=51 Bus2=54 phases=3 Linecode=4c_.1 Length=12.5725 Units=m
New Line.LINE54 Bus1=52 Bus2=55 phases=3 Linecode=2c_.0225 Length=0.29283 Units=m
New Line.LINE55 Bus1=53 Bus2=56 phases=3 Linecode=2c_.0225 Length=0.21115 Units=m
New Line.LINE56 Bus1=54 Bus2=57 phases=3 Linecode=4c_.1 Length=2.565 Units=m
New Line.LINE57 Bus1=55 Bus2=58 phases=3 Linecode=2c_.0225 Length=0.32242 Units=m
New Line.LINE58 Bus1=56 Bus2=59 phases=3 Linecode=2c_.0225 Length=0.25492 Units=m
New Line.LINE59 Bus1=57 Bus2=60 phases=3 Linecode=2c_.007 Length=0.78761 Units=m
New Line.LINE60 Bus1=57 Bus2=61 phases=3 Linecode=4c_.1 Length=8.1536 Units=m
New Line.LINE61 Bus1=58 Bus2=62 phases=3 Linecode=2c_.0225 Length=0.3096 Units=m
New Line.LINE62 Bus1=59 Bus2=63 phases=3 Linecode=2c_.0225 Length=0.31705 Units=m
New Line.LINE63 Bus1=60 Bus2=64 phases=3 Linecode=2c_.007 Length=0.11532 Units=m
New Line.LINE64 Bus1=61 Bus2=65 phases=3 Linecode=2c_.0225 Length=0.083385 Units=m
New Line.LINE65 Bus1=61 Bus2=66 phases=3 Linecode=4c_.1 Length=10.4961 Units=m
New Line.LINE66 Bus1=62 Bus2=67 phases=3 Linecode=2c_.0225 Length=0.30829 Units=m
New Line.LINE67 Bus1=63 Bus2=68 phases=3 Linecode=2c_.0225 Length=0.28956 Units=m
New Line.LINE68 Bus1=64 Bus2=69 phases=3 Linecode=2c_.007 Length=0.19739 Units=m
New Line.LINE69 Bus1=65 Bus2=70 phases=3 Linecode=2c_.0225 Length=0.18917 Units=m
New Line.LINE70 Bus1=66 Bus2=71 phases=3 Linecode=4c_.1 Length=15.5921 Units=m
New Line.LINE71 Bus1=67 Bus2=72 phases=3 Linecode=2c_.0225 Length=0.26883 Units=m
New Line.LINE72 Bus1=68 Bus2=73 phases=3 Linecode=2c_.0225 Length=0.41961 Units=m
New Line.LINE73 Bus1=69 Bus2=74 phases=3 Linecode=2c_.007 Length=0.13048 Units=m
New Line.LINE74 Bus1=70 Bus2=75 phases=3 Linecode=2c_.0225 Length=0.17962 Units=m
New Line.LINE75 Bus1=71 Bus2=76 phases=3 Linecode=4c_.1 Length=12.639 Units=m
New Line.LINE76 Bus1=71 Bus2=77 phases=3 Linecode=2c_.0225 Length=0.45016 Units=m
New Line.LINE77 Bus1=72 Bus2=78 phases=3 Linecode=2c_.0225 Length=0.2767 Units=m
New Line.LINE78 Bus1=73 Bus2=79 phases=3 Linecode=2c_.0225 Length=0.55498 Units=m
New Line.LINE79 Bus1=74 Bus2=80 phases=3 Linecode=2c_.007 Length=0.15149 Units=m
New Line.LINE80 Bus1=75 Bus2=81 phases=3 Linecode=2c_.0225 Length=0.094921 Units=m
New Line.LINE81 Bus1=76 Bus2=82 phases=3 Linecode=2c_.0225 Length=0.47424 Units=m
New Line.LINE82 Bus1=76 Bus2=83 phases=3 Linecode=4c_.1 Length=11.0741 Units=m
New Line.LINE83 Bus1=77 Bus2=84 phases=3 Linecode=2c_.0225 Length=0.13624 Units=m
New Line.LINE84 Bus1=78 Bus2=85 phases=3 Linecode=2c_.0225 Length=0.40485 Units=m
New Line.LINE85 Bus1=79 Bus2=86 phases=3 Linecode=2c_.0225 Length=5.204 Units=m
New Line.LINE86 Bus1=80 Bus2=87 phases=3 Linecode=2c_.007 Length=0.17551 Units=m
New Line.LINE87 Bus1=81 Bus2=88 phases=3 Linecode=2c_.0225 Length=0.2435 Units=m
New Line.LINE88 Bus1=82 Bus2=89 phases=3 Linecode=2c_.0225 Length=0.19517 Units=m
New Line.LINE89 Bus1=83 Bus2=90 phases=3 Linecode=4_XC Length=0.21503 Units=m
New Line.LINE90 Bus1=83 Bus2=91 phases=3 Linecode=4c_.1 Length=1.1316 Units=m
New Line.LINE91 Bus1=84 Bus2=92 phases=3 Linecode=2c_.0225 Length=0.24776 Units=m
New Line.LINE92 Bus1=85 Bus2=93 phases=3 Linecode=2c_.0225 Length=0.53792 Units=m
New Line.LINE93 Bus1=86 Bus2=94 phases=3 Linecode=2c_.0225 Length=0.31 Units=m
New Line.LINE94 Bus1=87 Bus2=95 phases=3 Linecode=2c_.007 Length=0.18348 Units=m
New Line.LINE95 Bus1=88 Bus2=96 phases=3 Linecode=2c_.0225 Length=0.1673 Units=m
New Line.LINE96 Bus1=89 Bus2=97 phases=3 Linecode=2c_.0225 Length=0.21101 Units=m
New Line.LINE97 Bus1=90 Bus2=98 phases=3 Linecode=4_XC Length=0.046098 Units=m
New Line.LINE98 Bus1=91 Bus2=99 phases=3 Linecode=4c_.1 Length=5.7162 Units=m
New Line.LINE99 Bus1=92 Bus2=100 phases=3 Linecode=2c_.0225 Length=0.25351 Units=m
New Line.LINE100 Bus1=93 Bus2=101 phases=3 Linecode=2c_.0225 Length=0.8438 Units=m
New Line.LINE101 Bus1=94 Bus2=102 phases=3 Linecode=2c_.0225 Length=0.28956 Units=m
New Line.LINE102 Bus1=95 Bus2=103 phases=3 Linecode=2c_.007 Length=0.21353 Units=m
New Line.LINE103 Bus1=96 Bus2=104 phases=3 Linecode=2c_.0225 Length=5.794 Units=m
New Line.LINE104 Bus1=97 Bus2=105 phases=3 Linecode=2c_.0225 Length=0.27959 Units=m
New Line.LINE105 Bus1=98 Bus2=106 phases=3 Linecode=4_XC Length=0.044821 Units=m
New Line.LINE106 Bus1=99 Bus2=107 phases=3 Linecode=4c_.1 Length=0.33352 Units=m
New Line.LINE107 Bus1=99 Bus2=108 phases=3 Linecode=4c_.1 Length=7.8695 Units=m
New Line.LINE108 Bus1=100 Bus2=109 phases=3 Linecode=2c_.0225 Length=0.30259 Units=m
New Line.LINE109 Bus1=101 Bus2=110 phases=3 Linecode=2c_.0225 Length=1.019 Units=m
New Line.LINE110 Bus1=102 Bus2=111 phases=3 Linecode=2c_.0225 Length=0.3264 Units=m
New Line.LINE111 Bus1=103 Bus2=112 phases=3 Linecode=2c_.007 Length=0.9942 Units=m
New Line.LINE112 Bus1=104 Bus2=113 phases=3 Linecode=2c_.0225 Length=7.7006 Units=m
New Line.LINE113 Bus1=105 Bus2=114 phases=3 Linecode=2c_.0225 Length=0.21183 Units=m
New Line.LINE114 Bus1=106 Bus2=115 phases=3 Linecode=4_XC Length=0.045653 Units=m
New Line.LINE115 Bus1=107 Bus2=116 phases=3 Linecode=4c_.1 Length=0.12794 Units=m
New Line.LINE116 Bus1=108 Bus2=117 phases=3 Linecode=4c_.1 Length=7.4675 Units=m
New Line.LINE117 Bus1=108 Bus2=118 phases=3 Linecode=2c_.0225 Length=0.33626 Units=m
New Line.LINE118 Bus1=109 Bus2=119 phases=3 Linecode=2c_.0225 Length=9.9165 Units=m
New Line.LINE119 Bus1=110 Bus2=120 phases=3 Linecode=2c_.0225 Length=0.6411 Units=m
New Line.LINE120 Bus1=111 Bus2=121 phases=3 Linecode=2c_.0225 Length=0.76118 Units=m
New Line.LINE121 Bus1=113 Bus2=122 phases=3 Linecode=2c_.0225 Length=0.21294 Units=m
New Line.LINE122 Bus1=114 Bus2=123 phases=3 Linecode=2c_.0225 Length=9.7576 Units=m
New Line.LINE123 Bus1=115 Bus2=124 phases=3 Linecode=4_XC Length=0.045539 Units=m
New Line.LINE124 Bus1=116 Bus2=125 phases=3 Linecode=4c_.1 Length=0.12714 Units=m
New Line.LINE125 Bus1=117 Bus2=126 phases=3 Linecode=4c_.1 Length=4.3954 Units=m
New Line.LINE126 Bus1=118 Bus2=127 phases=3 Linecode=2c_.0225 Length=0.22042 Units=m
New Line.LINE127 Bus1=119 Bus2=128 phases=3 Linecode=2c_.0225 Length=3.0428 Units=m
New Line.LINE128 Bus1=120 Bus2=129 phases=3 Linecode=2c_.0225 Length=0.51896 Units=m
New Line.LINE129 Bus1=121 Bus2=130 phases=3 Linecode=2c_.0225 Length=0.24071 Units=m
New Line.LINE130 Bus1=122 Bus2=131 phases=3 Linecode=2c_.0225 Length=0.14994 Units=m
New Line.LINE131 Bus1=123 Bus2=132 phases=3 Linecode=2c_.0225 Length=0.23067 Units=m
New Line.LINE132 Bus1=124 Bus2=133 phases=3 Linecode=4_XC Length=0.045542 Units=m
New Line.LINE133 Bus1=125 Bus2=134 phases=3 Linecode=4c_.1 Length=0.12701 Units=m
New Line.LINE134 Bus1=126 Bus2=135 phases=3 Linecode=4c_.1 Length=0.4069 Units=m
New Line.LINE135 Bus1=126 Bus2=136 phases=3 Linecode=4c_.06 Length=1.4878 Units=m
New Line.LINE136 Bus1=127 Bus2=137 phases=3 Linecode=2c_.0225 Length=0.24102 Units=m
New Line.LINE137 Bus1=128 Bus2=138 phases=3 Linecode=2c_.0225 Length=0.174 Units=m
New Line.LINE138 Bus1=129 Bus2=139 phases=3 Linecode=2c_.0225 Length=0.31338 Units=m
New Line.LINE139 Bus1=130 Bus2=140 phases=3 Linecode=2c_.0225 Length=0.20203 Units=m
New Line.LINE140 Bus1=131 Bus2=141 phases=3 Linecode=2c_.0225 Length=0.13528 Units=m
New Line.LINE141 Bus1=132 Bus2=142 phases=3 Linecode=2c_.0225 Length=0.27868 Units=m
New Line.LINE142 Bus1=133 Bus2=143 phases=3 Linecode=4_XC Length=1.17 Units=m
New Line.LINE143 Bus1=134 Bus2=144 phases=3 Linecode=4c_.1 Length=0.12763 Units=m
New Line.LINE144 Bus1=135 Bus2=145 phases=3 Linecode=4c_.1 Length=0.19873 Units=m
New Line.LINE145 Bus1=136 Bus2=146 phases=3 Linecode=4c_.06 Length=12.5132 Units=m
New Line.LINE146 Bus1=136 Bus2=147 phases=3 Linecode=2c_.0225 Length=0.31583 Units=m
New Line.LINE147 Bus1=137 Bus2=148 phases=3 Linecode=2c_.0225 Length=0.27546 Units=m
New Line.LINE148 Bus1=138 Bus2=149 phases=3 Linecode=2c_.0225 Length=0.21129 Units=m
New Line.LINE149 Bus1=139 Bus2=150 phases=3 Linecode=2c_.0225 Length=0.423 Units=m
New Line.LINE150 Bus1=140 Bus2=151 phases=3 Linecode=2c_.0225 Length=0.26308 Units=m
New Line.LINE151 Bus1=141 Bus2=152 phases=3 Linecode=2c_.0225 Length=0.10383 Units=m
New Line.LINE152 Bus1=142 Bus2=153 phases=3 Linecode=2c_.0225 Length=0.22084 Units=m
New Line.LINE153 Bus1=144 Bus2=154 phases=3 Linecode=4c_.1 Length=0.12744 Units=m
New Line.LINE154 Bus1=145 Bus2=155 phases=3 Linecode=4c_.1 Length=0.17541 Units=m
New Line.LINE155 Bus1=146 Bus2=156 phases=3 Linecode=4c_.06 Length=13.7824 Units=m
New Line.LINE156 Bus1=147 Bus2=157 phases=3 Linecode=2c_.0225 Length=0.17317 Units=m
New Line.LINE157 Bus1=148 Bus2=158 phases=3 Linecode=2c_.0225 Length=13.1851 Units=m
New Line.LINE158 Bus1=149 Bus2=159 phases=3 Linecode=2c_.0225 Length=0.29221 Units=m
New Line.LINE159 Bus1=150 Bus2=160 phases=3 Linecode=2c_.0225 Length=1.3644 Units=m
New Line.LINE160 Bus1=151 Bus2=161 phases=3 Linecode=2c_.0225 Length=4.0196 Units=m
New Line.LINE161 Bus1=152 Bus2=162 phases=3 Linecode=2c_.0225 Length=0.16984 Units=m
New Line.LINE162 Bus1=153 Bus2=163 phases=3 Linecode=2c_.0225 Length=0.23067 Units=m
New Line.LINE163 Bus1=154 Bus2=164 phases=3 Linecode=4c_.1 Length=0.12728 Units=m
New Line.LINE164 Bus1=155 Bus2=165 phases=3 Linecode=4c_.1 Length=0.19556 Units=m
New Line.LINE165 Bus1=156 Bus2=166 phases=3 Linecode=4c_.06 Length=3.5251 Units=m
New Line.LINE166 Bus1=156 Bus2=167 phases=3 Linecode=2c_.0225 Length=0.38356 Units=m
New Line.LINE167 Bus1=157 Bus2=168 phases=3 Linecode=2c_.0225 Length=0.16832 Units=m
New Line.LINE168 Bus1=158 Bus2=169 phases=3 Linecode=2c_.0225 Length=0.4575 Units=m
New Line.LINE169 Bus1=159 Bus2=170 phases=3 Linecode=2c_.0225 Length=0.29402 Units=m
New Line.LINE170 Bus1=160 Bus2=171 phases=3 Linecode=2c_.0225 Length=0.43833 Units=m
New Line.LINE171 Bus1=161 Bus2=172 phases=3 Linecode=2c_.0225 Length=0.17981 Units=m
New Line.LINE172 Bus1=162 Bus2=173 phases=3 Linecode=2c_.0225 Length=1.158 Units=m
New Line.LINE173 Bus1=163 Bus2=174 phases=3 Linecode=2c_.0225 Length=0.65159 Units=m
New Line.LINE174 Bus1=164 Bus2=175 phases=3 Linecode=4c_.1 Length=0.12819 Units=m
New Line.LINE175 Bus1=165 Bus2=176 phases=3 Linecode=4c_.1 Length=0.18239 Units=m
New Line.LINE176 Bus1=166 Bus2=177 phases=3 Linecode=4c_.06 Length=1.3911 Units=m
New Line.LINE177 Bus1=167 Bus2=178 phases=3 Linecode=2c_.0225 Length=0.17862 Units=m
New Line.LINE178 Bus1=168 Bus2=179 phases=3 Linecode=2c_.0225 Length=0.35762 Units=m
New Line.LINE179 Bus1=169 Bus2=180 phases=3 Linecode=2c_.0225 Length=0.22924 Units=m
New Line.LINE180 Bus1=170 Bus2=181 phases=3 Linecode=2c_.0225 Length=0.5513 Units=m
New Line.LINE181 Bus1=171 Bus2=182 phases=3 Linecode=2c_.0225 Length=0.54403 Units=m
New Line.LINE182 Bus1=172 Bus2=183 phases=3 Linecode=2c_.0225 Length=0.18655 Units=m
New Line.LINE183 Bus1=173 Bus2=184 phases=3 Linecode=2c_.0225 Length=3.4959 Units=m
New Line.LINE184 Bus1=173 Bus2=185 phases=3 Linecode=2c_.0225 Length=3.2073 Units=m
New Line.LINE185 Bus1=174 Bus2=186 phases=3 Linecode=2c_.0225 Length=3.4599 Units=m
New Line.LINE186 Bus1=174 Bus2=187 phases=3 Linecode=2c_.0225 Length=5.2635 Units=m
New Line.LINE187 Bus1=175 Bus2=188 phases=3 Linecode=4c_.1 Length=0.12661 Units=m
New Line.LINE188 Bus1=176 Bus2=189 phases=3 Linecode=4c_.1 Length=0.21125 Units=m
New Line.LINE189 Bus1=177 Bus2=190 phases=3 Linecode=4c_.06 Length=0.078518 Units=m
New Line.LINE190 Bus1=178 Bus2=191 phases=3 Linecode=2c_.0225 Length=0.30756 Units=m
New Line.LINE191 Bus1=179 Bus2=192 phases=3 Linecode=2c_.0225 Length=0.34087 Units=m
New Line.LINE192 Bus1=180 Bus2=193 phases=3 Linecode=2c_.0225 Length=0.13903 Units=m
New Line.LINE193 Bus1=181 Bus2=194 phases=3 Linecode=2c_.0225 Length=4.824 Units=m
New Line.LINE194 Bus1=182 Bus2=195 phases=3 Linecode=2c_.0225 Length=4.3367 Units=m
New Line.LINE195 Bus1=183 Bus2=196 phases=3 Linecode=2c_.0225 Length=0.14968 Units=m
New Line.LINE196 Bus1=184 Bus2=197 phases=3 Linecode=2c_.0225 Length=7.397 Units=m
New Line.LINE197 Bus1=186 Bus2=198 phases=3 Linecode=2c_.0225 Length=6.0344 Units=m
New Line.LINE198 Bus1=188 Bus2=199 phases=3 Linecode=4c_.1 Length=0.20082 Units=m
New Line.LINE199 Bus1=189 Bus2=200 phases=3 Linecode=4c_.1 Length=0.25464 Units=m
New Line.LINE200 Bus1=190 Bus2=201 phases=3 Linecode=4c_.06 Length=3.0363 Units=m
New Line.LINE201 Bus1=191 Bus2=202 phases=3 Linecode=2c_.0225 Length=0.49186 Units=m
New Line.LINE202 Bus1=192 Bus2=203 phases=3 Linecode=2c_.0225 Length=8.1065 Units=m
New Line.LINE203 Bus1=193 Bus2=204 phases=3 Linecode=2c_.0225 Length=0.19752 Units=m
New Line.LINE204 Bus1=195 Bus2=205 phases=3 Linecode=2c_.0225 Length=0.27288 Units=m
New Line.LINE205 Bus1=196 Bus2=206 phases=3 Linecode=2c_.0225 Length=0.2065 Units=m
New Line.LINE206 Bus1=199 Bus2=207 phases=3 Linecode=4c_.1 Length=0.19942 Units=m
New Line.LINE207 Bus1=200 Bus2=208 phases=3 Linecode=4c_.1 Length=0.28614 Units=m
New Line.LINE208 Bus1=201 Bus2=209 phases=3 Linecode=4c_.06 Length=1.3123 Units=m
New Line.LINE209 Bus1=202 Bus2=210 phases=3 Linecode=2c_.0225 Length=0.347 Units=m
New Line.LINE210 Bus1=203 Bus2=211 phases=3 Linecode=2c_.0225 Length=0.40295 Units=m
New Line.LINE211 Bus1=204 Bus2=212 phases=3 Linecode=2c_.0225 Length=0.27931 Units=m
New Line.LINE212 Bus1=205 Bus2=213 phases=3 Linecode=2c_.0225 Length=0.18634 Units=m
New Line.LINE213 Bus1=206 Bus2=214 phases=3 Linecode=2c_.0225 Length=0.20203 Units=m
New Line.LINE214 Bus1=207 Bus2=215 phases=3 Linecode=4c_.1 Length=0.20032 Units=m
New Line.LINE215 Bus1=208 Bus2=216 phases=3 Linecode=4c_.1 Length=0.2604 Units=m
New Line.LINE216 Bus1=209 Bus2=217 phases=3 Linecode=4_XC Length=0.28837 Units=m
New Line.LINE217 Bus1=209 Bus2=218 phases=3 Linecode=4c_.06 Length=0.74892 Units=m
New Line.LINE218 Bus1=210 Bus2=219 phases=3 Linecode=2c_.0225 Length=0.52217 Units=m
New Line.LINE219 Bus1=211 Bus2=220 phases=3 Linecode=2c_.0225 Length=0.377 Units=m
New Line.LINE220 Bus1=212 Bus2=221 phases=3 Linecode=2c_.0225 Length=5.8482 Units=m
New Line.LINE221 Bus1=213 Bus2=222 phases=3 Linecode=2c_.0225 Length=0.15718 Units=m
New Line.LINE222 Bus1=214 Bus2=223 phases=3 Linecode=2c_.0225 Length=0.36051 Units=m
New Line.LINE223 Bus1=215 Bus2=224 phases=3 Linecode=4c_.1 Length=0.20086 Units=m
New Line.LINE224 Bus1=216 Bus2=225 phases=3 Linecode=4c_.1 Length=0.85753 Units=m
New Line.LINE225 Bus1=217 Bus2=226 phases=3 Linecode=4_XC Length=0.062969 Units=m
New Line.LINE226 Bus1=218 Bus2=227 phases=3 Linecode=4c_.06 Length=1.3181 Units=m
New Line.LINE227 Bus1=219 Bus2=228 phases=3 Linecode=2c_.0225 Length=3.3128 Units=m
New Line.LINE228 Bus1=220 Bus2=229 phases=3 Linecode=2c_.0225 Length=0.3147 Units=m
New Line.LINE229 Bus1=222 Bus2=230 phases=3 Linecode=2c_.0225 Length=0.74035 Units=m
New Line.LINE230 Bus1=223 Bus2=231 phases=3 Linecode=2c_.0225 Length=0.326 Units=m
New Line.LINE231 Bus1=224 Bus2=232 phases=3 Linecode=4c_.1 Length=0.19948 Units=m
New Line.LINE232 Bus1=225 Bus2=233 phases=3 Linecode=4c_.1 Length=6.4965 Units=m
New Line.LINE233 Bus1=226 Bus2=234 phases=3 Linecode=4_XC Length=0.062129 Units=m
New Line.LINE234 Bus1=227 Bus2=235 phases=3 Linecode=4c_.06 Length=1.5382 Units=m
New Line.LINE235 Bus1=228 Bus2=236 phases=3 Linecode=2c_.0225 Length=8.8072 Units=m
New Line.LINE236 Bus1=229 Bus2=237 phases=3 Linecode=2c_.0225 Length=0.34813 Units=m
New Line.LINE237 Bus1=230 Bus2=238 phases=3 Linecode=2c_.0225 Length=3.6819 Units=m
New Line.LINE238 Bus1=230 Bus2=239 phases=3 Linecode=2c_.0225 Length=3.3782 Units=m
New Line.LINE239 Bus1=231 Bus2=240 phases=3 Linecode=2c_.0225 Length=0.70822 Units=m
New Line.LINE240 Bus1=232 Bus2=241 phases=3 Linecode=4c_.1 Length=0.20041 Units=m
New Line.LINE241 Bus1=233 Bus2=242 phases=3 Linecode=4c_.1 Length=0.57591 Units=m
New Line.LINE242 Bus1=234 Bus2=243 phases=3 Linecode=4_XC Length=0.062769 Units=m
New Line.LINE243 Bus1=235 Bus2=244 phases=3 Linecode=4c_.06 Length=1.9689 Units=m
New Line.LINE244 Bus1=236 Bus2=245 phases=3 Linecode=2c_.0225 Length=0.42267 Units=m
New Line.LINE245 Bus1=237 Bus2=246 phases=3 Linecode=2c_.0225 Length=0.5472 Units=m
New Line.LINE246 Bus1=238 Bus2=247 phases=3 Linecode=2c_.0225 Length=6.5582 Units=m
New Line.LINE247 Bus1=240 Bus2=248 phases=3 Linecode=2c_.0225 Length=3.2479 Units=m
New Line.LINE248 Bus1=241 Bus2=249 phases=3 Linecode=4c_.1 Length=0.073661 Units=m
New Line.LINE249 Bus1=242 Bus2=250 phases=3 Linecode=4c_.1 Length=0.43389 Units=m
New Line.LINE250 Bus1=243 Bus2=251 phases=3 Linecode=4_XC Length=0.062587 Units=m
New Line.LINE251 Bus1=244 Bus2=252 phases=3 Linecode=4c_.06 Length=1.5066 Units=m
New Line.LINE252 Bus1=245 Bus2=253 phases=3 Linecode=2c_.0225 Length=0.36544 Units=m
New Line.LINE253 Bus1=246 Bus2=254 phases=3 Linecode=2c_.0225 Length=3.3561 Units=m
New Line.LINE254 Bus1=246 Bus2=255 phases=3 Linecode=2c_.0225 Length=5.9557 Units=m
New Line.LINE255 Bus1=249 Bus2=256 phases=3 Linecode=4c_.1 Length=0.072719 Units=m
New Line.LINE256 Bus1=250 Bus2=257 phases=3 Linecode=4c_.1 Length=0.38319 Units=m
New Line.LINE257 Bus1=251 Bus2=258 phases=3 Linecode=4_XC Length=0.06303 Units=m
New Line.LINE258 Bus1=252 Bus2=259 phases=3 Linecode=4c_.06 Length=1.319 Units=m
New Line.LINE259 Bus1=253 Bus2=260 phases=3 Linecode=2c_.0225 Length=0.22869 Units=m
New Line.LINE260 Bus1=254 Bus2=261 phases=3 Linecode=2c_.0225 Length=5.3641 Units=m
New Line.LINE261 Bus1=256 Bus2=262 phases=3 Linecode=4c_.1 Length=0.072801 Units=m
New Line.LINE262 Bus1=257 Bus2=263 phases=3 Linecode=4c_.1 Length=0.42366 Units=m
New Line.LINE263 Bus1=258 Bus2=264 phases=3 Linecode=4_XC Length=0.061523 Units=m
New Line.LINE264 Bus1=259 Bus2=265 phases=3 Linecode=4c_.06 Length=1.0112 Units=m
New Line.LINE265 Bus1=260 Bus2=266 phases=3 Linecode=2c_.0225 Length=0.18625 Units=m
New Line.LINE266 Bus1=262 Bus2=267 phases=3 Linecode=4c_.1 Length=0.24473 Units=m
New Line.LINE267 Bus1=263 Bus2=268 phases=3 Linecode=4c_.1 Length=0.28273 Units=m
New Line.LINE268 Bus1=264 Bus2=269 phases=3 Linecode=4_XC Length=0.063245 Units=m
New Line.LINE269 Bus1=265 Bus2=270 phases=3 Linecode=4c_.06 Length=1.4144 Units=m
New Line.LINE270 Bus1=266 Bus2=271 phases=3 Linecode=2c_.0225 Length=0.66795 Units=m
New Line.LINE271 Bus1=268 Bus2=272 phases=3 Linecode=4c_.1 Length=0.22948 Units=m
New Line.LINE272 Bus1=269 Bus2=273 phases=3 Linecode=4_XC Length=0.86331 Units=m
New Line.LINE273 Bus1=270 Bus2=274 phases=3 Linecode=4c_.06 Length=1.3291 Units=m
New Line.LINE274 Bus1=271 Bus2=275 phases=3 Linecode=2c_.0225 Length=3.8584 Units=m
New Line.LINE275 Bus1=271 Bus2=276 phases=3 Linecode=2c_.0225 Length=5.2074 Units=m
New Line.LINE276 Bus1=272 Bus2=277 phases=3 Linecode=4c_.1 Length=0.20357 Units=m
New Line.LINE277 Bus1=273 Bus2=278 phases=3 Linecode=4_XC Length=0.86459 Units=m
New Line.LINE278 Bus1=274 Bus2=279 phases=3 Linecode=4c_.06 Length=1.0034 Units=m
New Line.LINE279 Bus1=274 Bus2=280 phases=3 Linecode=2c_.0225 Length=0.48915 Units=m
New Line.LINE280 Bus1=275 Bus2=281 phases=3 Linecode=2c_.0225 Length=2.5666 Units=m
New Line.LINE281 Bus1=277 Bus2=282 phases=3 Linecode=4c_.1 Length=0.33013 Units=m
New Line.LINE282 Bus1=279 Bus2=283 phases=3 Linecode=4c_.06 Length=0.70293 Units=m
New Line.LINE283 Bus1=280 Bus2=284 phases=3 Linecode=2c_.0225 Length=0.096938 Units=m
New Line.LINE284 Bus1=282 Bus2=285 phases=3 Linecode=4c_.1 Length=0.57869 Units=m
New Line.LINE285 Bus1=283 Bus2=286 phases=3 Linecode=4c_.06 Length=0.67259 Units=m
New Line.LINE286 Bus1=284 Bus2=287 phases=3 Linecode=2c_.0225 Length=0.10911 Units=m
New Line.LINE287 Bus1=285 Bus2=288 phases=3 Linecode=4_XC Length=0.31435 Units=m
New Line.LINE288 Bus1=285 Bus2=289 phases=3 Linecode=4c_.1 Length=5.1631 Units=m
New Line.LINE289 Bus1=286 Bus2=290 phases=3 Linecode=4c_.06 Length=0.63511 Units=m
New Line.LINE290 Bus1=287 Bus2=291 phases=3 Linecode=2c_.0225 Length=0.1261 Units=m
New Line.LINE291 Bus1=288 Bus2=292 phases=3 Linecode=4_XC Length=0.1524 Units=m
New Line.LINE292 Bus1=289 Bus2=293 phases=3 Linecode=4c_.1 Length=1.4026 Units=m
New Line.LINE293 Bus1=290 Bus2=294 phases=3 Linecode=4c_.06 Length=0.66343 Units=m
New Line.LINE294 Bus1=291 Bus2=295 phases=3 Linecode=2c_.0225 Length=0.203 Units=m
New Line.LINE295 Bus1=292 Bus2=296 phases=3 Linecode=4_XC Length=0.15154 Units=m
New Line.LINE296 Bus1=293 Bus2=297 phases=3 Linecode=4c_.1 Length=6.3981 Units=m
New Line.LINE297 Bus1=293 Bus2=298 phases=3 Linecode=2c_.0225 Length=0.24761 Units=m
New Line.LINE298 Bus1=294 Bus2=299 phases=3 Linecode=4c_.06 Length=0.39901 Units=m
New Line.LINE299 Bus1=295 Bus2=300 phases=3 Linecode=2c_.0225 Length=0.25604 Units=m
New Line.LINE300 Bus1=296 Bus2=301 phases=3 Linecode=4_XC Length=0.15256 Units=m
New Line.LINE301 Bus1=297 Bus2=302 phases=3 Linecode=2c_.007 Length=0.19558 Units=m
New Line.LINE302 Bus1=297 Bus2=303 phases=3 Linecode=4c_.1 Length=11.8391 Units=m
New Line.LINE303 Bus1=298 Bus2=304 phases=3 Linecode=2c_.0225 Length=0.22436 Units=m
New Line.LINE304 Bus1=299 Bus2=305 phases=3 Linecode=4c_.06 Length=1.0166 Units=m
New Line.LINE305 Bus1=299 Bus2=306 phases=3 Linecode=4c_.06 Length=0.27303 Units=m
New Line.LINE306 Bus1=300 Bus2=307 phases=3 Linecode=2c_.0225 Length=0.26793 Units=m
New Line.LINE307 Bus1=301 Bus2=308 phases=3 Linecode=4_XC Length=0.15211 Units=m
New Line.LINE308 Bus1=302 Bus2=309 phases=3 Linecode=2c_.007 Length=0.19888 Units=m
New Line.LINE309 Bus1=303 Bus2=310 phases=3 Linecode=4c_.1 Length=1.5983 Units=m
New Line.LINE310 Bus1=303 Bus2=311 phases=3 Linecode=2c_.0225 Length=1.1716 Units=m
New Line.LINE311 Bus1=304 Bus2=312 phases=3 Linecode=2c_.0225 Length=3.4228 Units=m
New Line.LINE312 Bus1=305 Bus2=313 phases=3 Linecode=4c_.06 Length=1.0478 Units=m
New Line.LINE313 Bus1=306 Bus2=314 phases=3 Linecode=4c_.06 Length=0.12889 Units=m
New Line.LINE314 Bus1=307 Bus2=315 phases=3 Linecode=2c_.0225 Length=0.97911 Units=m
New Line.LINE315 Bus1=308 Bus2=316 phases=3 Linecode=4_XC Length=0.1516 Units=m
New Line.LINE316 Bus1=309 Bus2=317 phases=3 Linecode=2c_.007 Length=0.19885 Units=m
New Line.LINE317 Bus1=310 Bus2=318 phases=3 Linecode=4c_.1 Length=2.1062 Units=m
New Line.LINE318 Bus1=311 Bus2=319 phases=3 Linecode=2c_.0225 Length=0.31171 Units=m
New Line.LINE319 Bus1=312 Bus2=320 phases=3 Linecode=2c_.0225 Length=0.21159 Units=m
New Line.LINE320 Bus1=313 Bus2=321 phases=3 Linecode=4c_.06 Length=1.7091 Units=m
New Line.LINE321 Bus1=314 Bus2=322 phases=3 Linecode=4c_.06 Length=0.12525 Units=m
New Line.LINE322 Bus1=315 Bus2=323 phases=3 Linecode=2c_.0225 Length=4.6451 Units=m
New Line.LINE323 Bus1=316 Bus2=324 phases=3 Linecode=4_XC Length=0.15251 Units=m
New Line.LINE324 Bus1=317 Bus2=325 phases=3 Linecode=2c_.007 Length=0.1998 Units=m
New Line.LINE325 Bus1=318 Bus2=326 phases=3 Linecode=4c_.1 Length=1.9009 Units=m
New Line.LINE326 Bus1=319 Bus2=327 phases=3 Linecode=2c_.0225 Length=0.24272 Units=m
New Line.LINE327 Bus1=320 Bus2=328 phases=3 Linecode=2c_.0225 Length=0.22677 Units=m
New Line.LINE328 Bus1=321 Bus2=329 phases=3 Linecode=4c_.06 Length=0.54693 Units=m
New Line.LINE329 Bus1=322 Bus2=330 phases=3 Linecode=4c_.06 Length=0.10474 Units=m
New Line.LINE330 Bus1=323 Bus2=331 phases=3 Linecode=2c_.0225 Length=1.7012 Units=m
New Line.LINE331 Bus1=324 Bus2=332 phases=3 Linecode=4_XC Length=0.15165 Units=m
New Line.LINE332 Bus1=325 Bus2=333 phases=3 Linecode=2c_.007 Length=0.1986 Units=m
New Line.LINE333 Bus1=326 Bus2=334 phases=3 Linecode=4c_.1 Length=0.68699 Units=m
New Line.LINE334 Bus1=327 Bus2=335 phases=3 Linecode=2c_.0225 Length=0.21174 Units=m
New Line.LINE335 Bus1=328 Bus2=336 phases=3 Linecode=2c_.0225 Length=0.3082 Units=m
New Line.LINE336 Bus1=329 Bus2=337 phases=3 Linecode=4c_.06 Length=4.913 Units=m
New Line.LINE337 Bus1=329 Bus2=338 phases=3 Linecode=2c_.0225 Length=0.53876 Units=m
New Line.LINE338 Bus1=330 Bus2=339 phases=3 Linecode=4c_.06 Length=0.132 Units=m
New Line.LINE339 Bus1=331 Bus2=340 phases=3 Linecode=2c_.0225 Length=0.11152 Units=m
New Line.LINE340 Bus1=332 Bus2=341 phases=3 Linecode=4_XC Length=0.59446 Units=m
New Line.LINE341 Bus1=333 Bus2=342 phases=3 Linecode=2c_.007 Length=0.19986 Units=m
New Line.LINE342 Bus1=334 Bus2=343 phases=3 Linecode=4c_.1 Length=1.4166 Units=m
New Line.LINE343 Bus1=335 Bus2=344 phases=3 Linecode=2c_.0225 Length=0.14566 Units=m
New Line.LINE344 Bus1=336 Bus2=345 phases=3 Linecode=2c_.0225 Length=0.6446 Units=m
New Line.LINE345 Bus1=337 Bus2=346 phases=3 Linecode=4c_.06 Length=3.4722 Units=m
New Line.LINE346 Bus1=338 Bus2=347 phases=3 Linecode=2c_.0225 Length=0.171 Units=m
New Line.LINE347 Bus1=339 Bus2=348 phases=3 Linecode=4c_.06 Length=0.088324 Units=m
New Line.LINE348 Bus1=340 Bus2=349 phases=3 Linecode=2c_.0225 Length=0.10435 Units=m
New Line.LINE349 Bus1=341 Bus2=350 phases=3 Linecode=4_XC Length=0.59398 Units=m
New Line.LINE350 Bus1=342 Bus2=351 phases=3 Linecode=2c_.007 Length=1.0895 Units=m
New Line.LINE351 Bus1=343 Bus2=352 phases=3 Linecode=4c_.1 Length=1.0219 Units=m
New Line.LINE352 Bus1=344 Bus2=353 phases=3 Linecode=2c_.0225 Length=0.25597 Units=m
New Line.LINE353 Bus1=345 Bus2=354 phases=3 Linecode=2c_.0225 Length=0.36615 Units=m
New Line.LINE354 Bus1=346 Bus2=355 phases=3 Linecode=4c_.06 Length=2.4036 Units=m
New Line.LINE355 Bus1=347 Bus2=356 phases=3 Linecode=2c_.0225 Length=0.19358 Units=m
New Line.LINE356 Bus1=348 Bus2=357 phases=3 Linecode=4c_.06 Length=0.13982 Units=m
New Line.LINE357 Bus1=349 Bus2=358 phases=3 Linecode=2c_.0225 Length=0.1024 Units=m
New Line.LINE358 Bus1=352 Bus2=359 phases=3 Linecode=4c_.1 Length=0.83674 Units=m
New Line.LINE359 Bus1=353 Bus2=360 phases=3 Linecode=2c_.0225 Length=0.20646 Units=m
New Line.LINE360 Bus1=354 Bus2=361 phases=3 Linecode=2c_.0225 Length=0.19461 Units=m
New Line.LINE361 Bus1=355 Bus2=362 phases=3 Linecode=4_XC Length=0.261 Units=m
New Line.LINE362 Bus1=355 Bus2=363 phases=3 Linecode=4c_.06 Length=1.0633 Units=m
New Line.LINE363 Bus1=356 Bus2=364 phases=3 Linecode=2c_.0225 Length=0.25599 Units=m
New Line.LINE364 Bus1=357 Bus2=365 phases=3 Linecode=4c_.06 Length=0.10966 Units=m
New Line.LINE365 Bus1=358 Bus2=366 phases=3 Linecode=2c_.0225 Length=0.26404 Units=m
New Line.LINE366 Bus1=359 Bus2=367 phases=3 Linecode=4c_.1 Length=1.315 Units=m
New Line.LINE367 Bus1=360 Bus2=368 phases=3 Linecode=2c_.0225 Length=3.5981 Units=m
New Line.LINE368 Bus1=361 Bus2=369 phases=3 Linecode=2c_.0225 Length=0.1983 Units=m
New Line.LINE369 Bus1=362 Bus2=370 phases=3 Linecode=4_XC Length=0.138 Units=m
New Line.LINE370 Bus1=363 Bus2=371 phases=3 Linecode=4c_.06 Length=0.036708 Units=m
New Line.LINE371 Bus1=364 Bus2=372 phases=3 Linecode=2c_.0225 Length=0.86847 Units=m
New Line.LINE372 Bus1=365 Bus2=373 phases=3 Linecode=4c_.06 Length=1.0333 Units=m
New Line.LINE373 Bus1=366 Bus2=374 phases=3 Linecode=2c_.0225 Length=0.18559 Units=m
New Line.LINE374 Bus1=367 Bus2=375 phases=3 Linecode=4c_.1 Length=1.0408 Units=m
New Line.LINE375 Bus1=368 Bus2=376 phases=3 Linecode=2c_.0225 Length=5.7035 Units=m
New Line.LINE376 Bus1=369 Bus2=377 phases=3 Linecode=2c_.0225 Length=0.21159 Units=m
New Line.LINE377 Bus1=370 Bus2=378 phases=3 Linecode=4_XC Length=0.13846 Units=m
New Line.LINE378 Bus1=371 Bus2=379 phases=3 Linecode=2c_.0225 Length=0.37545 Units=m
New Line.LINE379 Bus1=371 Bus2=380 phases=3 Linecode=4c_.06 Length=5.6165 Units=m
New Line.LINE380 Bus1=372 Bus2=381 phases=3 Linecode=2c_.0225 Length=6.0535 Units=m
New Line.LINE381 Bus1=373 Bus2=382 phases=3 Linecode=4c_.06 Length=0.081025 Units=m
New Line.LINE382 Bus1=374 Bus2=383 phases=3 Linecode=2c_.0225 Length=0.14313 Units=m
New Line.LINE383 Bus1=375 Bus2=384 phases=3 Linecode=4c_.1 Length=1.0867 Units=m
New Line.LINE384 Bus1=376 Bus2=385 phases=3 Linecode=2c_.0225 Length=0.26887 Units=m
New Line.LINE385 Bus1=377 Bus2=386 phases=3 Linecode=2c_.0225 Length=5.4291 Units=m
New Line.LINE386 Bus1=378 Bus2=387 phases=3 Linecode=4_XC Length=0.13742 Units=m
New Line.LINE387 Bus1=379 Bus2=388 phases=3 Linecode=2c_.0225 Length=0.20066 Units=m
New Line.LINE388 Bus1=380 Bus2=389 phases=3 Linecode=4c_.06 Length=2.9624 Units=m
New Line.LINE389 Bus1=381 Bus2=390 phases=3 Linecode=2c_.0225 Length=5.8267 Units=m
New Line.LINE390 Bus1=382 Bus2=391 phases=3 Linecode=4c_.06 Length=0.064846 Units=m
New Line.LINE391 Bus1=383 Bus2=392 phases=3 Linecode=2c_.0225 Length=0.10465 Units=m
New Line.LINE392 Bus1=384 Bus2=393 phases=3 Linecode=4c_.1 Length=0.80827 Units=m
New Line.LINE393 Bus1=385 Bus2=394 phases=3 Linecode=2c_.0225 Length=0.25456 Units=m
New Line.LINE394 Bus1=386 Bus2=395 phases=3 Linecode=2c_.0225 Length=0.143 Units=m
New Line.LINE395 Bus1=387 Bus2=396 phases=3 Linecode=4_XC Length=0.13823 Units=m
New Line.LINE396 Bus1=388 Bus2=397 phases=3 Linecode=2c_.0225 Length=0.20501 Units=m
New Line.LINE397 Bus1=389 Bus2=398 phases=3 Linecode=4c_.06 Length=1.1537 Units=m
New Line.LINE398 Bus1=390 Bus2=399 phases=3 Linecode=2c_.0225 Length=0.34093 Units=m
New Line.LINE399 Bus1=391 Bus2=400 phases=3 Linecode=4c_.06 Length=0.075107 Units=m
New Line.LINE400 Bus1=392 Bus2=401 phases=3 Linecode=2c_.0225 Length=4.0397 Units=m
New Line.LINE401 Bus1=393 Bus2=402 phases=3 Linecode=4c_.1 Length=1.3161 Units=m
New Line.LINE402 Bus1=394 Bus2=403 phases=3 Linecode=2c_.0225 Length=0.20214 Units=m
New Line.LINE403 Bus1=395 Bus2=404 phases=3 Linecode=2c_.0225 Length=0.10436 Units=m
New Line.LINE404 Bus1=396 Bus2=405 phases=3 Linecode=4_XC Length=1.6595 Units=m
New Line.LINE405 Bus1=397 Bus2=406 phases=3 Linecode=2c_.0225 Length=0.25173 Units=m
New Line.LINE406 Bus1=398 Bus2=407 phases=3 Linecode=4c_.06 Length=2.0971 Units=m
New Line.LINE407 Bus1=398 Bus2=408 phases=3 Linecode=2c_.0225 Length=0.37982 Units=m
New Line.LINE408 Bus1=399 Bus2=409 phases=3 Linecode=2c_.0225 Length=0.25378 Units=m
New Line.LINE409 Bus1=400 Bus2=410 phases=3 Linecode=4c_.06 Length=0.091083 Units=m
New Line.LINE410 Bus1=401 Bus2=411 phases=3 Linecode=2c_.0225 Length=0.15877 Units=m
New Line.LINE411 Bus1=402 Bus2=412 phases=3 Linecode=4c_.1 Length=0.58401 Units=m
New Line.LINE412 Bus1=403 Bus2=413 phases=3 Linecode=2c_.0225 Length=0.49366 Units=m
New Line.LINE413 Bus1=404 Bus2=414 phases=3 Linecode=2c_.0225 Length=0.11693 Units=m
New Line.LINE414 Bus1=406 Bus2=415 phases=3 Linecode=2c_.0225 Length=0.26045 Units=m
New Line.LINE415 Bus1=407 Bus2=416 phases=3 Linecode=2c_.007 Length=0.574 Units=m
New Line.LINE416 Bus1=407 Bus2=417 phases=3 Linecode=4c_.06 Length=0.71382 Units=m
New Line.LINE417 Bus1=408 Bus2=418 phases=3 Linecode=2c_.0225 Length=0.44926 Units=m
New Line.LINE418 Bus1=409 Bus2=419 phases=3 Linecode=2c_.0225 Length=0.25673 Units=m
New Line.LINE419 Bus1=410 Bus2=420 phases=3 Linecode=4c_.06 Length=0.06772 Units=m
New Line.LINE420 Bus1=411 Bus2=421 phases=3 Linecode=2c_.0225 Length=0.12872 Units=m
New Line.LINE421 Bus1=412 Bus2=422 phases=3 Linecode=4c_.1 Length=1.2401 Units=m
New Line.LINE422 Bus1=413 Bus2=423 phases=3 Linecode=2c_.0225 Length=7.1269 Units=m
New Line.LINE423 Bus1=413 Bus2=424 phases=3 Linecode=2c_.0225 Length=5.0662 Units=m
New Line.LINE424 Bus1=414 Bus2=425 phases=3 Linecode=2c_.0225 Length=0.76419 Units=m
New Line.LINE425 Bus1=415 Bus2=426 phases=3 Linecode=2c_.0225 Length=0.34828 Units=m
New Line.LINE426 Bus1=416 Bus2=427 phases=3 Linecode=2c_.007 Length=0.42274 Units=m
New Line.LINE427 Bus1=418 Bus2=428 phases=3 Linecode=2c_.0225 Length=0.23303 Units=m
New Line.LINE428 Bus1=419 Bus2=429 phases=3 Linecode=2c_.0225 Length=0.188 Units=m
New Line.LINE429 Bus1=420 Bus2=430 phases=3 Linecode=4c_.06 Length=0.13646 Units=m
New Line.LINE430 Bus1=421 Bus2=431 phases=3 Linecode=2c_.0225 Length=0.14169 Units=m
New Line.LINE431 Bus1=422 Bus2=432 phases=3 Linecode=4c_.1 Length=1.6253 Units=m
New Line.LINE432 Bus1=423 Bus2=433 phases=3 Linecode=2c_.0225 Length=2.9493 Units=m
New Line.LINE433 Bus1=425 Bus2=434 phases=3 Linecode=2c_.0225 Length=4.497 Units=m
New Line.LINE434 Bus1=425 Bus2=435 phases=3 Linecode=2c_.0225 Length=2.3107 Units=m
New Line.LINE435 Bus1=426 Bus2=436 phases=3 Linecode=2c_.0225 Length=6.5882 Units=m
New Line.LINE436 Bus1=427 Bus2=437 phases=3 Linecode=2c_.007 Length=0.84567 Units=m
New Line.LINE437 Bus1=428 Bus2=438 phases=3 Linecode=2c_.0225 Length=0.2573 Units=m
New Line.LINE438 Bus1=429 Bus2=439 phases=3 Linecode=2c_.0225 Length=0.19936 Units=m
New Line.LINE439 Bus1=430 Bus2=440 phases=3 Linecode=4c_.06 Length=2.0606 Units=m
New Line.LINE440 Bus1=431 Bus2=441 phases=3 Linecode=2c_.0225 Length=0.11035 Units=m
New Line.LINE441 Bus1=432 Bus2=442 phases=3 Linecode=4c_.1 Length=0.88244 Units=m
New Line.LINE442 Bus1=434 Bus2=443 phases=3 Linecode=2c_.0225 Length=4.7461 Units=m
New Line.LINE443 Bus1=436 Bus2=444 phases=3 Linecode=2c_.0225 Length=4.1352 Units=m
New Line.LINE444 Bus1=437 Bus2=445 phases=3 Linecode=2c_.007 Length=0.43925 Units=m
New Line.LINE445 Bus1=438 Bus2=446 phases=3 Linecode=2c_.0225 Length=9.8975 Units=m
New Line.LINE446 Bus1=439 Bus2=447 phases=3 Linecode=2c_.0225 Length=0.86481 Units=m
New Line.LINE447 Bus1=441 Bus2=448 phases=3 Linecode=2c_.0225 Length=0.10324 Units=m
New Line.LINE448 Bus1=442 Bus2=449 phases=3 Linecode=4c_.1 Length=1.0459 Units=m
New Line.LINE449 Bus1=444 Bus2=450 phases=3 Linecode=2c_.0225 Length=0.38378 Units=m
New Line.LINE450 Bus1=445 Bus2=451 phases=3 Linecode=2c_.007 Length=0.20607 Units=m
New Line.LINE451 Bus1=446 Bus2=452 phases=3 Linecode=2c_.0225 Length=0.29427 Units=m
New Line.LINE452 Bus1=447 Bus2=453 phases=3 Linecode=2c_.0225 Length=5.1904 Units=m
New Line.LINE453 Bus1=447 Bus2=454 phases=3 Linecode=2c_.0225 Length=5.4775 Units=m
New Line.LINE454 Bus1=448 Bus2=455 phases=3 Linecode=2c_.0225 Length=0.1301 Units=m
New Line.LINE455 Bus1=449 Bus2=456 phases=3 Linecode=4c_.1 Length=1.0321 Units=m
New Line.LINE456 Bus1=450 Bus2=457 phases=3 Linecode=2c_.0225 Length=0.24142 Units=m
New Line.LINE457 Bus1=451 Bus2=458 phases=3 Linecode=2c_.007 Length=0.20808 Units=m
New Line.LINE458 Bus1=452 Bus2=459 phases=3 Linecode=2c_.0225 Length=0.31249 Units=m
New Line.LINE459 Bus1=453 Bus2=460 phases=3 Linecode=2c_.0225 Length=3.4806 Units=m
New Line.LINE460 Bus1=455 Bus2=461 phases=3 Linecode=2c_.0225 Length=0.35268 Units=m
New Line.LINE461 Bus1=456 Bus2=462 phases=3 Linecode=4c_.1 Length=1.4552 Units=m
New Line.LINE462 Bus1=457 Bus2=463 phases=3 Linecode=2c_.0225 Length=0.19007 Units=m
New Line.LINE463 Bus1=458 Bus2=464 phases=3 Linecode=2c_.007 Length=14.8499 Units=m
New Line.LINE464 Bus1=459 Bus2=465 phases=3 Linecode=2c_.0225 Length=0.51852 Units=m
New Line.LINE465 Bus1=461 Bus2=466 phases=3 Linecode=2c_.0225 Length=4.8614 Units=m
New Line.LINE466 Bus1=462 Bus2=467 phases=3 Linecode=4c_.1 Length=1.0818 Units=m
New Line.LINE467 Bus1=463 Bus2=468 phases=3 Linecode=2c_.0225 Length=0.2157 Units=m
New Line.LINE468 Bus1=464 Bus2=469 phases=3 Linecode=4_XSC Length=4.2226 Units=m
New Line.LINE469 Bus1=465 Bus2=470 phases=3 Linecode=2c_.0225 Length=0.20808 Units=m
New Line.LINE470 Bus1=467 Bus2=471 phases=3 Linecode=4c_.1 Length=1.3731 Units=m
New Line.LINE471 Bus1=468 Bus2=472 phases=3 Linecode=2c_.0225 Length=0.17085 Units=m
New Line.LINE472 Bus1=469 Bus2=473 phases=3 Linecode=4_XSC Length=1.3767 Units=m
New Line.LINE473 Bus1=470 Bus2=474 phases=3 Linecode=2c_.0225 Length=5.3994 Units=m
New Line.LINE474 Bus1=471 Bus2=475 phases=3 Linecode=4c_.1 Length=1.0975 Units=m
New Line.LINE475 Bus1=472 Bus2=476 phases=3 Linecode=2c_.0225 Length=0.09996 Units=m
New Line.LINE476 Bus1=473 Bus2=477 phases=3 Linecode=4_XSC Length=1.3763 Units=m
New Line.LINE477 Bus1=474 Bus2=478 phases=3 Linecode=2c_.0225 Length=6.3272 Units=m
New Line.LINE478 Bus1=475 Bus2=479 phases=3 Linecode=4c_.1 Length=2.0791 Units=m
New Line.LINE479 Bus1=476 Bus2=480 phases=3 Linecode=2c_.0225 Length=0.182 Units=m
New Line.LINE480 Bus1=477 Bus2=481 phases=3 Linecode=4_XSC Length=1.3767 Units=m
New Line.LINE481 Bus1=478 Bus2=482 phases=3 Linecode=2c_.0225 Length=0.24995 Units=m
New Line.LINE482 Bus1=479 Bus2=483 phases=3 Linecode=4c_.1 Length=1.2845 Units=m
New Line.LINE483 Bus1=480 Bus2=484 phases=3 Linecode=2c_.0225 Length=0.34861 Units=m
New Line.LINE484 Bus1=481 Bus2=485 phases=3 Linecode=4_XSC Length=0.87813 Units=m
New Line.LINE485 Bus1=482 Bus2=486 phases=3 Linecode=2c_.0225 Length=0.22042 Units=m
New Line.LINE486 Bus1=483 Bus2=487 phases=3 Linecode=2c_.0225 Length=0.53581 Units=m
New Line.LINE487 Bus1=483 Bus2=488 phases=3 Linecode=4c_.1 Length=3.6243 Units=m
New Line.LINE488 Bus1=484 Bus2=489 phases=3 Linecode=2c_.0225 Length=0.64709 Units=m
New Line.LINE489 Bus1=486 Bus2=490 phases=3 Linecode=2c_.0225 Length=0.287 Units=m
New Line.LINE490 Bus1=487 Bus2=491 phases=3 Linecode=2c_.0225 Length=0.34722 Units=m
New Line.LINE491 Bus1=488 Bus2=492 phases=3 Linecode=4c_.1 Length=1.7576 Units=m
New Line.LINE492 Bus1=489 Bus2=493 phases=3 Linecode=2c_.0225 Length=3.8926 Units=m
New Line.LINE493 Bus1=490 Bus2=494 phases=3 Linecode=2c_.0225 Length=0.21292 Units=m
New Line.LINE494 Bus1=491 Bus2=495 phases=3 Linecode=2c_.0225 Length=0.364 Units=m
New Line.LINE495 Bus1=492 Bus2=496 phases=3 Linecode=4c_.06 Length=10.1976 Units=m
New Line.LINE496 Bus1=494 Bus2=497 phases=3 Linecode=2c_.0225 Length=0.36231 Units=m
New Line.LINE497 Bus1=495 Bus2=498 phases=3 Linecode=2c_.0225 Length=0.32478 Units=m
New Line.LINE498 Bus1=496 Bus2=499 phases=3 Linecode=4c_.06 Length=6.4448 Units=m
New Line.LINE499 Bus1=496 Bus2=500 phases=3 Linecode=2c_.0225 Length=0.77104 Units=m
New Line.LINE500 Bus1=497 Bus2=501 phases=3 Linecode=2c_.0225 Length=7.5729 Units=m
New Line.LINE501 Bus1=498 Bus2=502 phases=3 Linecode=2c_.0225 Length=0.26731 Units=m
New Line.LINE502 Bus1=499 Bus2=503 phases=3 Linecode=4c_.06 Length=18.6595 Units=m
New Line.LINE503 Bus1=500 Bus2=504 phases=3 Linecode=2c_.0225 Length=0.40392 Units=m
New Line.LINE504 Bus1=502 Bus2=505 phases=3 Linecode=2c_.0225 Length=0.28324 Units=m
New Line.LINE505 Bus1=503 Bus2=506 phases=3 Linecode=35_SAC_XSC Length=0.22194 Units=m
New Line.LINE506 Bus1=503 Bus2=507 phases=3 Linecode=4c_.06 Length=4.4296 Units=m
New Line.LINE507 Bus1=504 Bus2=508 phases=3 Linecode=2c_.0225 Length=0.28171 Units=m
New Line.LINE508 Bus1=505 Bus2=509 phases=3 Linecode=2c_.0225 Length=0.31459 Units=m
New Line.LINE509 Bus1=506 Bus2=510 phases=3 Linecode=35_SAC_XSC Length=0.17526 Units=m
New Line.LINE510 Bus1=507 Bus2=511 phases=3 Linecode=4c_.06 Length=7.5381 Units=m
New Line.LINE511 Bus1=508 Bus2=512 phases=3 Linecode=2c_.0225 Length=0.44567 Units=m
New Line.LINE512 Bus1=509 Bus2=513 phases=3 Linecode=2c_.0225 Length=0.83219 Units=m
New Line.LINE513 Bus1=510 Bus2=514 phases=3 Linecode=35_SAC_XSC Length=0.13946 Units=m
New Line.LINE514 Bus1=511 Bus2=515 phases=3 Linecode=4c_.06 Length=15.5866 Units=m
New Line.LINE515 Bus1=511 Bus2=516 phases=3 Linecode=35_SAC_XSC Length=0.30117 Units=m
New Line.LINE516 Bus1=512 Bus2=517 phases=3 Linecode=2c_.0225 Length=7.5858 Units=m
New Line.LINE517 Bus1=513 Bus2=518 phases=3 Linecode=2c_.0225 Length=4.3649 Units=m
New Line.LINE518 Bus1=514 Bus2=519 phases=3 Linecode=35_SAC_XSC Length=7.7081 Units=m
New Line.LINE519 Bus1=515 Bus2=520 phases=3 Linecode=4c_.06 Length=5.5413 Units=m
New Line.LINE520 Bus1=515 Bus2=521 phases=3 Linecode=2c_.007 Length=0.3667 Units=m
New Line.LINE521 Bus1=516 Bus2=522 phases=3 Linecode=35_SAC_XSC Length=0.1861 Units=m
New Line.LINE522 Bus1=517 Bus2=523 phases=3 Linecode=2c_.0225 Length=1.298 Units=m
New Line.LINE523 Bus1=517 Bus2=524 phases=3 Linecode=2c_.0225 Length=6.9929 Units=m
New Line.LINE524 Bus1=518 Bus2=525 phases=3 Linecode=2c_.0225 Length=0.19582 Units=m
New Line.LINE525 Bus1=519 Bus2=526 phases=3 Linecode=35_SAC_XSC Length=0.22038 Units=m
New Line.LINE526 Bus1=519 Bus2=527 phases=3 Linecode=2c_.0225 Length=0.18961 Units=m
New Line.LINE527 Bus1=520 Bus2=528 phases=3 Linecode=70_SAC Length=0.70975 Units=m
New Line.LINE528 Bus1=521 Bus2=529 phases=3 Linecode=2c_.007 Length=0.23006 Units=m
New Line.LINE529 Bus1=522 Bus2=530 phases=3 Linecode=35_SAC_XSC Length=0.29241 Units=m
New Line.LINE530 Bus1=523 Bus2=531 phases=3 Linecode=2c_.0225 Length=3.8703 Units=m
New Line.LINE531 Bus1=525 Bus2=532 phases=3 Linecode=2c_.0225 Length=0.133 Units=m
New Line.LINE532 Bus1=526 Bus2=533 phases=3 Linecode=35_SAC_XSC Length=0.28899 Units=m
New Line.LINE533 Bus1=527 Bus2=534 phases=3 Linecode=2c_.0225 Length=0.096746 Units=m
New Line.LINE534 Bus1=528 Bus2=535 phases=3 Linecode=70_SAC Length=2.3554 Units=m
New Line.LINE535 Bus1=528 Bus2=536 phases=3 Linecode=2c_.0225 Length=0.54002 Units=m
New Line.LINE536 Bus1=529 Bus2=537 phases=3 Linecode=2c_.007 Length=0.24325 Units=m
New Line.LINE537 Bus1=530 Bus2=538 phases=3 Linecode=35_SAC_XSC Length=8.6198 Units=m
New Line.LINE538 Bus1=531 Bus2=539 phases=3 Linecode=2c_.0225 Length=5.0837 Units=m
New Line.LINE539 Bus1=532 Bus2=540 phases=3 Linecode=2c_.0225 Length=0.22268 Units=m
New Line.LINE540 Bus1=533 Bus2=541 phases=3 Linecode=35_SAC_XSC Length=0.19209 Units=m
New Line.LINE541 Bus1=534 Bus2=542 phases=3 Linecode=2c_.0225 Length=0.18595 Units=m
New Line.LINE542 Bus1=536 Bus2=543 phases=3 Linecode=2c_.0225 Length=0.21858 Units=m
New Line.LINE543 Bus1=537 Bus2=544 phases=3 Linecode=2c_.007 Length=0.209 Units=m
New Line.LINE544 Bus1=538 Bus2=545 phases=3 Linecode=35_SAC_XSC Length=0.14071 Units=m
New Line.LINE545 Bus1=540 Bus2=546 phases=3 Linecode=2c_.0225 Length=0.15811 Units=m
New Line.LINE546 Bus1=541 Bus2=547 phases=3 Linecode=35_SAC_XSC Length=0.1921 Units=m
New Line.LINE547 Bus1=542 Bus2=548 phases=3 Linecode=2c_.0225 Length=0.21293 Units=m
New Line.LINE548 Bus1=543 Bus2=549 phases=3 Linecode=2c_.0225 Length=0.289 Units=m
New Line.LINE549 Bus1=544 Bus2=550 phases=3 Linecode=2c_.007 Length=0.21159 Units=m
New Line.LINE550 Bus1=545 Bus2=551 phases=3 Linecode=35_SAC_XSC Length=0.3639 Units=m
New Line.LINE551 Bus1=546 Bus2=552 phases=3 Linecode=2c_.0225 Length=0.15085 Units=m
New Line.LINE552 Bus1=547 Bus2=553 phases=3 Linecode=35_SAC_XSC Length=0.19226 Units=m
New Line.LINE553 Bus1=548 Bus2=554 phases=3 Linecode=2c_.0225 Length=5.3347 Units=m
New Line.LINE554 Bus1=549 Bus2=555 phases=3 Linecode=2c_.0225 Length=0.38897 Units=m
New Line.LINE555 Bus1=550 Bus2=556 phases=3 Linecode=2c_.007 Length=0.22379 Units=m
New Line.LINE556 Bus1=551 Bus2=557 phases=3 Linecode=35_SAC_XSC Length=0.035693 Units=m
New Line.LINE557 Bus1=552 Bus2=558 phases=3 Linecode=2c_.0225 Length=0.18694 Units=m
New Line.LINE558 Bus1=553 Bus2=559 phases=3 Linecode=35_SAC_XSC Length=0.19138 Units=m
New Line.LINE559 Bus1=554 Bus2=560 phases=3 Linecode=2c_.0225 Length=6.3898 Units=m
New Line.LINE560 Bus1=555 Bus2=561 phases=3 Linecode=2c_.0225 Length=0.24593 Units=m
New Line.LINE561 Bus1=556 Bus2=562 phases=3 Linecode=2c_.007 Length=0.22127 Units=m
New Line.LINE562 Bus1=557 Bus2=563 phases=3 Linecode=35_SAC_XSC Length=0.034928 Units=m
New Line.LINE563 Bus1=558 Bus2=564 phases=3 Linecode=2c_.0225 Length=0.94376 Units=m
New Line.LINE564 Bus1=559 Bus2=565 phases=3 Linecode=35_SAC_XSC Length=0.11131 Units=m
New Line.LINE565 Bus1=561 Bus2=566 phases=3 Linecode=2c_.0225 Length=4.6661 Units=m
New Line.LINE566 Bus1=562 Bus2=567 phases=3 Linecode=2c_.007 Length=0.1024 Units=m
New Line.LINE567 Bus1=563 Bus2=568 phases=3 Linecode=35_SAC_XSC Length=0.035228 Units=m
New Line.LINE568 Bus1=564 Bus2=569 phases=3 Linecode=2c_.0225 Length=2.9142 Units=m
New Line.LINE569 Bus1=565 Bus2=570 phases=3 Linecode=35_SAC_XSC Length=0.11007 Units=m
New Line.LINE570 Bus1=566 Bus2=571 phases=3 Linecode=2c_.0225 Length=0.59298 Units=m
New Line.LINE571 Bus1=567 Bus2=572 phases=3 Linecode=4_XSC Length=0.17905 Units=m
New Line.LINE572 Bus1=568 Bus2=573 phases=3 Linecode=35_SAC_XSC Length=0.035355 Units=m
New Line.LINE573 Bus1=569 Bus2=574 phases=3 Linecode=2c_.0225 Length=0.17342 Units=m
New Line.LINE574 Bus1=570 Bus2=575 phases=3 Linecode=35_SAC_XSC Length=0.11086 Units=m
New Line.LINE575 Bus1=571 Bus2=576 phases=3 Linecode=2c_.0225 Length=0.49165 Units=m
New Line.LINE576 Bus1=572 Bus2=577 phases=3 Linecode=4_XSC Length=0.19938 Units=m
New Line.LINE577 Bus1=573 Bus2=578 phases=3 Linecode=35_SAC_XSC Length=0.03551 Units=m
New Line.LINE578 Bus1=574 Bus2=579 phases=3 Linecode=2c_.0225 Length=0.16807 Units=m
New Line.LINE579 Bus1=575 Bus2=580 phases=3 Linecode=35_SAC_XSC Length=0.11057 Units=m
New Line.LINE580 Bus1=576 Bus2=581 phases=3 Linecode=2c_.0225 Length=0.80252 Units=m
New Line.LINE581 Bus1=577 Bus2=582 phases=3 Linecode=4_XSC Length=0.20055 Units=m
New Line.LINE582 Bus1=578 Bus2=583 phases=3 Linecode=35_SAC_XSC Length=0.034929 Units=m
New Line.LINE583 Bus1=579 Bus2=584 phases=3 Linecode=2c_.0225 Length=0.12609 Units=m
New Line.LINE584 Bus1=580 Bus2=585 phases=3 Linecode=35_SAC_XSC Length=0.31354 Units=m
New Line.LINE585 Bus1=581 Bus2=586 phases=3 Linecode=2c_.0225 Length=7.6497 Units=m
New Line.LINE586 Bus1=582 Bus2=587 phases=3 Linecode=4_XSC Length=0.19997 Units=m
New Line.LINE587 Bus1=583 Bus2=588 phases=3 Linecode=35_SAC_XSC Length=0.035693 Units=m
New Line.LINE588 Bus1=584 Bus2=589 phases=3 Linecode=2c_.0225 Length=0.15373 Units=m
New Line.LINE589 Bus1=585 Bus2=590 phases=3 Linecode=35_SAC_XSC Length=0.058523 Units=m
New Line.LINE590 Bus1=587 Bus2=591 phases=3 Linecode=4_XSC Length=0.19791 Units=m
New Line.LINE591 Bus1=588 Bus2=592 phases=3 Linecode=35_SAC_XSC Length=0.035 Units=m
New Line.LINE592 Bus1=589 Bus2=593 phases=3 Linecode=2c_.0225 Length=0.22227 Units=m
New Line.LINE593 Bus1=590 Bus2=594 phases=3 Linecode=35_SAC_XSC Length=0.059414 Units=m
New Line.LINE594 Bus1=591 Bus2=595 phases=3 Linecode=4_XSC Length=0.19801 Units=m
New Line.LINE595 Bus1=592 Bus2=596 phases=3 Linecode=35_SAC_XSC Length=0.035511 Units=m
New Line.LINE596 Bus1=593 Bus2=597 phases=3 Linecode=2c_.0225 Length=0.21519 Units=m
New Line.LINE597 Bus1=594 Bus2=598 phases=3 Linecode=35_SAC_XSC Length=0.059405 Units=m
New Line.LINE598 Bus1=595 Bus2=599 phases=3 Linecode=4_XSC Length=0.19795 Units=m
New Line.LINE599 Bus1=596 Bus2=600 phases=3 Linecode=35_SAC_XSC Length=0.034539 Units=m
New Line.LINE600 Bus1=597 Bus2=601 phases=3 Linecode=2c_.0225 Length=0.4982 Units=m
New Line.LINE601 Bus1=598 Bus2=602 phases=3 Linecode=35_SAC_XSC Length=0.058599 Units=m
New Line.LINE602 Bus1=600 Bus2=603 phases=3 Linecode=35_SAC_XSC Length=0.035512 Units=m
New Line.LINE603 Bus1=601 Bus2=604 phases=3 Linecode=2c_.0225 Length=5.826 Units=m
New Line.LINE604 Bus1=602 Bus2=605 phases=3 Linecode=35_SAC_XSC Length=0.058942 Units=m
New Line.LINE605 Bus1=603 Bus2=606 phases=3 Linecode=35_SAC_XSC Length=1.9728 Units=m
New Line.LINE606 Bus1=605 Bus2=607 phases=3 Linecode=35_SAC_XSC Length=0.059211 Units=m
New Line.LINE607 Bus1=606 Bus2=608 phases=3 Linecode=35_SAC_XSC Length=0.082377 Units=m
New Line.LINE608 Bus1=607 Bus2=609 phases=3 Linecode=35_SAC_XSC Length=0.059413 Units=m
New Line.LINE609 Bus1=608 Bus2=610 phases=3 Linecode=35_SAC_XSC Length=0.082036 Units=m
New Line.LINE610 Bus1=609 Bus2=611 phases=3 Linecode=35_SAC_XSC Length=0.058523 Units=m
New Line.LINE611 Bus1=610 Bus2=612 phases=3 Linecode=35_SAC_XSC Length=0.081841 Units=m
New Line.LINE612 Bus1=611 Bus2=613 phases=3 Linecode=35_SAC_XSC Length=0.059482 Units=m
New Line.LINE613 Bus1=612 Bus2=614 phases=3 Linecode=35_SAC_XSC Length=0.081542 Units=m
New Line.LINE614 Bus1=613 Bus2=615 phases=3 Linecode=35_SAC_XSC Length=5.1753 Units=m
New Line.LINE615 Bus1=614 Bus2=616 phases=3 Linecode=35_SAC_XSC Length=0.082976 Units=m
New Line.LINE616 Bus1=616 Bus2=617 phases=3 Linecode=35_SAC_XSC Length=0.082006 Units=m
New Line.LINE617 Bus1=617 Bus2=618 phases=3 Linecode=35_SAC_XSC Length=0.081709 Units=m
New Line.LINE618 Bus1=618 Bus2=619 phases=3 Linecode=35_SAC_XSC Length=4.4605 Units=m
